  47
 
 P         -1.3636186059       -0.6184204950       -3.9859210099
 N          0.1737848729       -1.0602373149       -3.4647487949
 N         -1.9765550751        0.3748175651       -2.7504947165
 N         -2.4445956999       -1.9064418806       -3.9151287593
 O         -1.3171982109       -0.0315067432       -5.3274075529
 C          1.2393219124       -1.0483398034       -4.4515541750
 C          0.3692119665       -1.8517147570       -2.2715424458
 C         -3.2474464217        0.9452943381       -3.1686281985
 C         -1.0649834088        1.2890933160       -2.0877680901
 C         -2.4732249608       -2.7509948149       -5.0899010010
 C         -2.9557959868       -2.4502726085       -2.6768393053
 H          0.7924368363       -1.1319680411       -5.4454960163
 H          1.8868976192       -1.9164976850       -4.2888398614
 C          2.0535988873        0.2417158730       -4.4092074513
 H         -0.5503317841       -1.7822083339       -1.6901700113
 C          1.5429541380       -1.3807788223       -1.4149238608
 H          0.5299328046       -2.9099719242       -2.5321127514
 H         -3.6816945602        0.2457959886       -3.8884789971
 H         -3.0891495816        1.8983570738       -3.6931791418
 C         -4.2184546424        1.1591549153       -2.0128572605
 H         -0.0505638305        1.0736742448       -2.4345620175
 C         -1.1110206093        1.1515128675       -0.5658303335
 H         -1.2989624539        2.3239848727       -2.3678603916
 H         -2.2518822134       -2.1018561415       -5.9401141827
 H         -3.4823816119       -3.1532942803       -5.2205907150
 C         -1.4612858446       -3.8955179309       -5.0557229612
 H         -2.7375216988       -1.7162397546       -1.8994392975
 H         -2.4576798423       -3.3942991360       -2.4172062787
 C         -4.4669362894       -2.6793868547       -2.7225588330
 H          1.3980321081        1.0819958023       -4.6233543612
 H          2.8358857755        0.2099933236       -5.1641320507
 H          2.5121904559        0.3920749067       -3.4353243523
 H          1.4337733841       -0.3310029934       -1.1572526540
 H          2.4859355691       -1.5166793920       -1.9379587229
 H          1.5760457424       -1.9629653495       -0.4964623853
 H         -4.3035822224        0.2554400164       -1.4152504195
 H         -5.2006122099        1.4120811692       -2.4056879273
 H         -3.8904407033        1.9741654385       -1.3730424169
 H         -0.8990578439        0.1273843811       -0.2706337558
 H         -2.0870703948        1.4223688432       -0.1747959903
 H         -0.3660018345        1.8044709588       -0.1159808678
 H         -0.4557910329       -3.4969540918       -4.9339809075
 H         -1.5033547328       -4.4541832745       -5.9876693560
 H         -1.6695348880       -4.5802615246       -4.2354485534
 H         -4.9723235796       -1.7790953399       -3.0611280757
 H         -4.8270856353       -2.9321854120       -1.7281582140
 H         -4.7236336626       -3.4952611950       -3.3932245775
          47
        -56.48742057
 P          0.1063722078       -0.0634038253       -0.5724384851
 N         -1.3665542216        0.7199235840       -0.3673786538
 N         -0.1768229771       -1.5140012616        0.2690798043
 N          1.3242720826        0.7016378136        0.2927746585
 O          0.4434987417       -0.1741498232       -1.9948742945
 C         -1.6865539893        1.7176939596       -1.3667378295
 C         -2.0583173669        0.7864006274        0.9007794545
 C          0.9914439258       -2.2792980752        0.6620712977
 C         -1.2622496085       -2.2895080772       -0.3120940291
 C          2.4883590288        1.1911313018       -0.4144463432
 C          1.2624028326        0.9096030298        1.7211871552
 H         -2.7720190794        1.7618947068       -1.4953885830
 H         -1.2458078901        1.3681499188       -2.3021445114
 C         -1.1420133738        3.1093452770       -1.0530797209
 H         -1.6212795175        0.0149225016        1.5359669999
 C         -3.5591478296        0.5242249880        0.7702105733
 H         -1.9123433380        1.7590987443        1.3889748686
 H          0.6842989410       -3.0051804426        1.4234043334
 H          1.6913202764       -1.5835975145        1.1270556979
 C          1.7065740602       -2.9950556889       -0.4849661546
 H         -1.9108954297       -1.5830017701       -0.8357892588
 C         -2.0624240680       -3.0364577692        0.7511830402
 H         -0.8897841575       -3.0002179124       -1.0582337001
 H          2.6618585743        2.2442228378       -0.1644666933
 H          2.2550269269        1.1250097502       -1.4781486941
 C          3.7559297048        0.3863220355       -0.1338031100
 H          2.1864525136        0.5482203135        2.1906784689
 H          0.4364801680        0.3080509974        2.1032029151
 C          1.0538805461        2.3714344822        2.1186753304
 H         -1.5827186412        3.5098739239       -0.1419116547
 H         -1.3725293268        3.7885050873       -1.8701702874
 H         -0.0616481954        3.0596993746       -0.9343811034
 H         -4.0624130294        1.3449841443        0.2657938342
 H         -3.9952642078        0.4187088169        1.7608782346
 H         -3.7381606099       -0.3896301895        0.2102662858
 H          1.8433583646       -2.3016105821       -1.3113561714
 H          1.1365759504       -3.8502378145       -0.8396335285
 H          2.6782829953       -3.3512413825       -0.1498813696
 H         -2.9251263682       -3.5133718264        0.2924977680
 H         -2.4094119828       -2.3501371140        1.5191786542
 H         -1.4590105765       -3.8072317842        1.2241817665
 H          3.5993539284       -0.6575512428       -0.3918136057
 H          4.0440975204        0.4504156717        0.9134378539
 H          4.5730840527        0.7751062371       -0.7360726811
 H          0.1821754755        2.7810233751        1.6168406117
 H          1.9185295573        2.9748930009        1.8538094638
 H          0.9061970947        2.4406525430        3.1937261046
