47

P         -1.47819       -0.69581       -3.43839
N          0.35088       -0.63228       -3.43826
N         -2.09720        0.31297       -2.03924
N         -2.06181       -2.43072       -3.36733
O         -1.98283       -0.03923       -4.75461
C          0.87872       -0.51649       -4.81630
C          0.92064       -1.74031       -2.63754
C         -3.45004        0.84847       -2.33273
C         -1.11462        1.39348       -1.78734
C         -1.59999       -3.20675       -4.53737
C         -3.50344       -2.55802       -3.06144
H          0.41229        0.36689       -5.30303
H          0.63566       -1.41022       -5.42382
C          2.38631       -0.27473       -4.86613
H          0.15259       -2.19122       -1.97242
C          2.02211       -1.24134       -1.70242
H          1.31253       -2.55117       -3.28930
H         -3.96539        0.24957       -3.10240
H         -3.40479        1.88465       -2.73680
C         -4.35324        0.79063       -1.09848
H         -0.13341        0.93792       -1.55407
C         -1.44842        2.26814       -0.57908
H         -0.99469        2.03768       -2.68738
H         -0.50675       -3.10202       -4.63719
H         -2.05966       -2.82926       -5.47565
C         -1.84841       -4.70867       -4.38293
H         -3.75580       -1.89209       -2.21770
H         -3.70856       -3.58077       -2.68238
C         -4.44161       -2.28575       -4.24686
H          2.64917        0.63129       -4.27977
H          2.69938       -0.11740       -5.91996
H          2.94412       -1.15302       -4.48350
H          1.61783       -0.48524       -0.99942
H          2.86982       -0.79234       -2.25185
H          2.41150       -2.09468       -1.10772
H         -4.45418       -0.25410       -0.74094
H         -5.36266        1.16951       -1.36524
H         -3.97117        1.40163       -0.26136
H         -1.56159        1.64046        0.33037
H         -2.36650        2.86377       -0.75374
H         -0.62098        2.98954       -0.41042
H         -1.35067       -5.08206       -3.46296
H         -1.42454       -5.24333       -5.25923
H         -2.93038       -4.94438       -4.33785
H         -4.28725       -1.27821       -4.67546
H         -5.49330       -2.36500       -3.89970
H         -4.30125       -3.03515       -5.05123
