  47
 
 P         -1.4781900000       -0.6958100000       -3.4383900000
 N          0.3508800000       -0.6322800000       -3.4382600000
 N         -2.0972000000        0.3129700000       -2.0392400000
 N         -2.0618100000       -2.4307200000       -3.3673300000
 O         -1.9828300000       -0.0392300000       -4.7546100000
 C          0.8787200000       -0.5164900000       -4.8163000000
 C          0.9206400000       -1.7403100000       -2.6375400000
 C         -3.4500400000        0.8484700000       -2.3327300000
 C         -1.1146200000        1.3934800000       -1.7873400000
 C         -1.5999900000       -3.2067500000       -4.5373700000
 C         -3.5034400000       -2.5580200000       -3.0614400000
 H          0.4122900000        0.3668900000       -5.3030300000
 H          0.6356600000       -1.4102200000       -5.4238200000
 C          2.3863100000       -0.2747300000       -4.8661300000
 H          0.1525900000       -2.1912200000       -1.9724200000
 C          2.0221100000       -1.2413400000       -1.7024200000
 H          1.3125300000       -2.5511700000       -3.2893000000
 H         -3.9653900000        0.2495700000       -3.1024000000
 H         -3.4047900000        1.8846500000       -2.7368000000
 C         -4.3532400000        0.7906300000       -1.0984800000
 H         -0.1334100000        0.9379200000       -1.5540700000
 C         -1.4484200000        2.2681400000       -0.5790800000
 H         -0.9946900000        2.0376800000       -2.6873800000
 H         -0.5067500000       -3.1020200000       -4.6371900000
 H         -2.0596600000       -2.8292600000       -5.4756500000
 C         -1.8484100000       -4.7086700000       -4.3829300000
 H         -3.7558000000       -1.8920900000       -2.2177000000
 H         -3.7085600000       -3.5807700000       -2.6823800000
 C         -4.4416100000       -2.2857500000       -4.2468600000
 H          2.6491700000        0.6312900000       -4.2797700000
 H          2.6993800000       -0.1174000000       -5.9199600000
 H          2.9441200000       -1.1530200000       -4.4835000000
 H          1.6178300000       -0.4852400000       -0.9994200000
 H          2.8698200000       -0.7923400000       -2.2518500000
 H          2.4115000000       -2.0946800000       -1.1077200000
 H         -4.4541800000       -0.2541000000       -0.7409400000
 H         -5.3626600000        1.1695100000       -1.3652400000
 H         -3.9711700000        1.4016300000       -0.2613600000
 H         -1.5615900000        1.6404600000        0.3303700000
 H         -2.3665000000        2.8637700000       -0.7537400000
 H         -0.6209800000        2.9895400000       -0.4104200000
 H         -1.3506700000       -5.0820600000       -3.4629600000
 H         -1.4245400000       -5.2433300000       -5.2592300000
 H         -2.9303800000       -4.9443800000       -4.3378500000
 H         -4.2872500000       -1.2782100000       -4.6754600000
 H         -5.4933000000       -2.3650000000       -3.8997000000
 H         -4.3012500000       -3.0351500000       -5.0512300000
