  49
 
 P         -1.8272947281       -0.3517606435       -3.6327294604
 O         -0.2274003351       -0.4733743667       -3.9185057470
 N         -1.8556848650       -0.1422700552       -1.9660282571
 N         -2.4362857218       -1.8932417319       -3.8301284115
 O         -2.4681198299        0.6765421865       -4.4632170780
 C          0.2911717308        0.0766853576       -5.1106777458
 C         -3.2240425595       -0.1278386878       -1.4641220761
 C         -0.8591574573        0.6397838519       -1.2450962190
 C         -1.7582615330       -2.9546652456       -3.1057034329
 C         -3.3068305647       -2.2297764881       -4.9490477468
 H         -0.4065818925        0.8063715935       -5.5279201580
 H          0.4673622371       -0.7125540599       -5.8458574099
 C         -3.3168137241       -0.7886053383       -0.0875075239
 H         -3.7857277917       -0.7413280144       -2.1779232290
 C         -3.8554806912        1.2641754355       -1.4567651872
 C         -0.4416461119        1.9200806560       -1.9692675318
 C          0.3548187237       -0.2299865237       -0.9170910413
 H         -1.3240565478        0.9314833686       -0.2975214224
 H         -1.1640654683       -2.4348861814       -2.3474007950
 C         -0.8034377287       -3.7645532267       -3.9840012173
 C         -2.7532214292       -3.8751583892       -2.3956334282
 C         -4.6682636621       -1.5567552681       -4.7881179301
 H         -3.4551896501       -3.3148838468       -4.9166737200
 C         -2.6862652150       -1.8706042487       -6.2993679668
 H         -2.7785964754       -1.7327913366       -0.0866315883
 H         -4.3589678080       -0.9776378726        0.1589976773
 H         -2.8975121609       -0.1517578209        0.6877533474
 H         -3.3525417010        1.9228833634       -0.7522635817
 H         -4.9033883382        1.1932976498       -1.1742826698
 H         -3.7894702097        1.6934675857       -2.4527797719
 H          0.1806598177        1.6902799560       -2.8275454885
 H          0.1223997877        2.5620372239       -1.2942942590
 H         -1.3192054518        2.4590104879       -2.3161373126
 H          0.8242246149       -0.5789021352       -1.8311792154
 H          0.0484347099       -1.0926943143       -0.3300011240
 H          1.0791427002        0.3431929521       -0.3425802835
 H         -0.0763254928       -3.1040521642       -4.4488644504
 H         -1.3432844272       -4.2995093604       -4.7623832429
 H         -0.2706960331       -4.4912307849       -3.3749755209
 H         -3.4806292370       -3.2882876733       -1.8417426696
 H         -2.2233147991       -4.5223827454       -1.7009971899
 H         -3.2858719558       -4.5049929001       -3.1045407984
 H         -5.1380801430       -1.8686077829       -3.8576082263
 H         -5.3203838795       -1.8292439140       -5.6147226714
 H         -4.5423250515       -0.4790112494       -4.7773061009
 H         -2.5770690065       -0.7935982731       -6.3751499018
 H         -3.3245219876       -2.2179399736       -7.1092785430
 H         -1.7076166207       -2.3336632444       -6.4044079544
 H          1.2392239640        0.5652041929       -4.8758337246
          49
        -60.30730945
 P         -0.0076789233        0.5357601460        0.4465433578
 O          0.0657709189        1.8776710652       -0.4764164159
 N          1.3165742113       -0.3347688499       -0.1125931729
 N         -1.3049395734       -0.3372086495       -0.1372485438
 O         -0.0650311657        0.8458094064        1.8810931384
 C         -0.2932067309        3.1165583514        0.0970989974
 C          1.3780157956       -1.6498784398        0.5129320698
 C          2.5722320040        0.2905112311       -0.5078472599
 C         -1.3319685309       -0.5769282855       -1.5700956078
 C         -2.5287950233       -0.4888492163        0.6388897904
 H         -1.2968870544        3.4046630551       -0.2253990609
 H          0.4215172524        3.8694352583       -0.2421449857
 C          1.8945157170       -2.7061153197       -0.4659306006
 H          0.3361326435       -1.8877137141        0.7567589962
 C          2.1722150290       -1.6678166242        1.8188686345
 C          3.0065425176        1.4302270103        0.4142316089
 C          2.4935310352        0.7557619442       -1.9623215485
 H          3.3364019055       -0.4919243891       -0.4515500182
 H         -0.3092714660       -0.3732971006       -1.9028347566
 C         -2.2716136429        0.3689459319       -2.3192447110
 C         -1.6648454981       -2.0360886331       -1.8888355798
 C         -2.2857948066       -1.3899044715        1.8477348579
 H         -3.2568923518       -0.9816926826       -0.0149594824
 C         -3.1108449693        0.8548178936        1.0784813573
 H          2.9645456236       -2.6049227242       -0.6308634357
 H          1.3876906621       -2.6119827202       -1.4225336777
 H          1.7081447476       -3.6996679275       -0.0654023119
 H          2.0870850304       -2.6445611192        2.2896184183
 H          1.7700496631       -0.9176041589        2.4941746078
 H          3.2256064797       -1.4606522638        1.6439059175
 H          2.9540765645        1.1150332742        1.4528636159
 H          2.3626740021        2.2937606070        0.2861282547
 H          4.0300290412        1.7233132439        0.1861437489
 H          1.7209452149        1.5095726315       -2.0744821471
 H          2.2582966116       -0.0849707237       -2.6109339860
 H          3.4478062851        1.1772775805       -2.2704564649
 H         -1.9958512114        1.4009581378       -2.1195007017
 H         -3.3059263248        0.2150305884       -2.0193311538
 H         -2.1950722971        0.1914771005       -3.3894868889
 H         -1.4661616823       -2.2373296590       -2.9387128150
 H         -2.7125528233       -2.2548554627       -1.6956404680
 H         -1.0563680891       -2.7022071373       -1.2835292969
 H         -1.5378752751       -0.9399936117        2.4924864248
 H         -1.9352522086       -2.3686077445        1.5267534585
 H         -3.2077807693       -1.5184072703        2.4100482241
 H         -4.0662845085        0.7043468803        1.5769675252
 H         -3.2650564790        1.5030885902        0.2187187011
 H         -2.4273508582        1.3396784138        1.7680075704
 H         -0.2711677410        3.0517921353        1.1873905150
