53

P         -1.50686       -0.50011       -3.53248
O          0.17060       -0.73706       -3.99802
N         -1.57604       -0.10572       -1.74240
N         -2.46437       -2.02786       -3.82801
O         -2.14676        0.70138       -4.28191
C          0.38969       -0.27644       -5.30675
C         -2.95458       -0.37069       -1.21836
C         -0.95627        1.21902       -1.39218
C         -1.76548       -3.25148       -3.37009
C         -3.39805       -2.10621       -4.98284
C          1.85716       -0.36794       -5.60147
H          0.09096        0.78908       -5.41697
H         -0.13973       -0.91856       -6.03559
C         -2.91005       -1.10750        0.12838
H         -3.46870       -1.10202       -1.86903
C         -3.88756        0.85465       -1.20363
C          0.43168        1.42450       -2.03152
C         -0.75604        1.38063        0.12715
H         -1.59276        2.05344       -1.75784
H         -1.05116       -2.97607       -2.56181
C         -0.95879       -3.92689       -4.48668
C         -2.75296       -4.23525       -2.72967
C         -4.65630       -1.28001       -4.69469
H         -3.74887       -3.15165       -5.10228
C         -2.77150       -1.69979       -6.32463
C          2.35027       -0.00176       -6.78649
H          2.53734       -0.73966       -4.83959
H          1.69935        0.37345       -7.57020
H          3.41604       -0.07763       -6.97700
H         -2.31321       -2.03819        0.01864
H         -3.93892       -1.39571        0.43397
H         -2.47608       -0.52147        0.95328
H         -3.55390        1.64263       -0.50306
H         -4.90738        0.54572       -0.88935
H         -3.96085        1.28739       -2.22316
H          1.12358        0.60187       -1.75111
H          0.87293        2.38941       -1.70054
H          0.36322        1.51346       -3.12973
H         -0.13175        0.55292        0.52731
H         -1.70800        1.43090        0.67879
H         -0.25018        2.34461        0.35057
H         -0.21841       -3.21952       -4.91154
H         -1.62220       -4.29417       -5.29646
H         -0.40453       -4.79858       -4.07836
H         -3.29226       -3.73698       -1.89642
H         -2.20391       -5.10745       -2.31479
H         -3.49659       -4.61503       -3.45842
H         -5.13172       -1.63606       -3.75604
H         -5.39039       -1.39845       -5.52019
H         -4.42663       -0.20223       -4.58662
H         -2.46459       -0.63691       -6.33409
H         -3.51467       -1.83620       -7.13904
H         -1.89953       -2.33729       -6.56532
