  53
 
 P         -1.5068600000       -0.5001100000       -3.5324800000
 O          0.1706000000       -0.7370600000       -3.9980200000
 N         -1.5760400000       -0.1057200000       -1.7424000000
 N         -2.4643700000       -2.0278600000       -3.8280100000
 O         -2.1467600000        0.7013800000       -4.2819100000
 C          0.3896900000       -0.2764400000       -5.3067500000
 C         -2.9545800000       -0.3706900000       -1.2183600000
 C         -0.9562700000        1.2190200000       -1.3921800000
 C         -1.7654800000       -3.2514800000       -3.3700900000
 C         -3.3980500000       -2.1062100000       -4.9828400000
 C          1.8571600000       -0.3679400000       -5.6014700000
 H          0.0909600000        0.7890800000       -5.4169700000
 H         -0.1397300000       -0.9185600000       -6.0355900000
 C         -2.9100500000       -1.1075000000        0.1283800000
 H         -3.4687000000       -1.1020200000       -1.8690300000
 C         -3.8875600000        0.8546500000       -1.2036300000
 C          0.4316800000        1.4245000000       -2.0315200000
 C         -0.7560400000        1.3806300000        0.1271500000
 H         -1.5927600000        2.0534400000       -1.7578400000
 H         -1.0511600000       -2.9760700000       -2.5618100000
 C         -0.9587900000       -3.9268900000       -4.4866800000
 C         -2.7529600000       -4.2352500000       -2.7296700000
 C         -4.6563000000       -1.2800100000       -4.6946900000
 H         -3.7488700000       -3.1516500000       -5.1022800000
 C         -2.7715000000       -1.6997900000       -6.3246300000
 C          2.3502700000       -0.0017600000       -6.7864900000
 H          2.5373400000       -0.7396600000       -4.8395900000
 H          1.6993500000        0.3734500000       -7.5702000000
 H          3.4160400000       -0.0776300000       -6.9770000000
 H         -2.3132100000       -2.0381900000        0.0186400000
 H         -3.9389200000       -1.3957100000        0.4339700000
 H         -2.4760800000       -0.5214700000        0.9532800000
 H         -3.5539000000        1.6426300000       -0.5030600000
 H         -4.9073800000        0.5457200000       -0.8893500000
 H         -3.9608500000        1.2873900000       -2.2231600000
 H          1.1235800000        0.6018700000       -1.7511100000
 H          0.8729300000        2.3894100000       -1.7005400000
 H          0.3632200000        1.5134600000       -3.1297300000
 H         -0.1317500000        0.5529200000        0.5273100000
 H         -1.7080000000        1.4309000000        0.6787900000
 H         -0.2501800000        2.3446100000        0.3505700000
 H         -0.2184100000       -3.2195200000       -4.9115400000
 H         -1.6222000000       -4.2941700000       -5.2964600000
 H         -0.4045300000       -4.7985800000       -4.0783600000
 H         -3.2922600000       -3.7369800000       -1.8964200000
 H         -2.2039100000       -5.1074500000       -2.3147900000
 H         -3.4965900000       -4.6150300000       -3.4584200000
 H         -5.1317200000       -1.6360600000       -3.7560400000
 H         -5.3903900000       -1.3984500000       -5.5201900000
 H         -4.4266300000       -0.2022300000       -4.5866200000
 H         -2.4645900000       -0.6369100000       -6.3340900000
 H         -3.5146700000       -1.8362000000       -7.1390400000
 H         -1.8995300000       -2.3372900000       -6.5653200000
