41

P         -1.46342       -0.50378       -3.16031
N          0.32919       -0.22151       -3.20626
N         -2.04116        0.11140       -1.54931
N         -1.90498       -2.25757       -3.38583
O         -2.11365        0.35776       -4.27861
C          0.98967       -0.37064       -4.51251
C          1.06552       -1.06646       -2.26308
C         -3.50350        0.24186       -1.45526
C         -1.50073        1.44634       -1.22856
C         -1.38759       -2.83574       -4.63294
C         -3.35853       -2.51646       -3.40622
H          1.46579        0.61077       -4.72792
H          0.32140       -0.60785       -5.36354
C          2.10356       -1.39504       -4.31029
H          1.06229       -0.64862       -1.23444
C          2.45886       -1.15720       -2.86013
H          0.62247       -2.08937       -2.24049
H         -3.98475       -0.67638       -1.05881
H         -3.93629        0.48775       -2.45205
C         -3.73250        1.44744       -0.56191
H         -1.04048        1.36505       -0.21914
C         -2.69530        2.38317       -1.13178
H         -0.72349        1.82840       -1.92479
H         -0.36987       -3.25000       -4.51313
H         -1.39476       -2.07385       -5.44479
C         -2.38833       -3.91367       -5.00410
H         -4.00804       -1.63803       -3.24522
H         -3.55853       -3.25968       -2.60386
C         -3.66749       -3.16012       -4.75132
H          2.94310       -1.30843       -5.03185
H          1.68505       -2.41967       -4.38779
H          2.96155       -0.16767       -2.76450
H          3.10075       -1.94140       -2.40585
H         -3.45750        1.18841        0.48644
H         -4.77178        1.83863       -0.58215
H         -2.50602        3.30308       -0.53882
H         -3.01075        2.67726       -2.15942
H         -2.30802       -4.75806       -4.28127
H         -2.27726       -4.30278       -6.03844
H         -3.75646       -2.36084       -5.52332
H         -4.59586       -3.76975       -4.76473
