  44
 
 P         -1.2243525873       -0.8223869307       -3.7267852922
 O          0.0968730285       -1.6401508427       -3.5008451077
 O         -1.5316780429       -0.2406287564       -2.3028689614
 O         -2.3083388587       -1.9496796521       -3.9016976452
 O         -1.1735634918        0.1664139474       -4.7986077821
 Si         1.6212874266       -0.9921160786       -3.6166208228
 Si        -3.0485826518        0.1429906900       -1.7498586934
 Si        -2.6813463239       -2.6629400238       -5.3519551912
 C          1.6777809608        0.6106257208       -2.5956336012
 C          1.9988107180       -0.6531191322       -5.4520620383
 C          2.6983928759       -2.3844428688       -2.8980837438
 C         -2.6727129653        1.5047241173       -0.4764482574
 C         -3.7900047837       -1.4158573800       -0.9420892964
 C         -4.1278840977        0.7649712820       -3.1874331167
 C         -3.8123038686       -4.0892750559       -4.8000528356
 C         -1.0755036170       -3.2607494569       -6.1777467195
 C         -3.5829396358       -1.3937320282       -6.4467326677
 H          0.9457268609        1.3071358257       -2.9959412260
 H          2.6507295167        1.0922828042       -2.6089590538
 H          1.4094093127        0.4226492027       -1.5590711430
 H          1.1903057330       -0.0654178587       -5.8782833320
 H          2.0805143036       -1.5736827650       -6.0250314401
 H          2.9246452210       -0.1018145942       -5.5842889804
 H          2.4653926645       -2.5773970748       -1.8560062976
 H          3.7449157292       -2.1096557376       -2.9586092803
 H          2.5681677213       -3.3146977538       -3.4417176577
 H         -1.9391202487        1.1774197473        0.2534324477
 H         -3.5759361902        1.7736316500        0.0592616195
 H         -2.2869130808        2.4020009110       -0.9502105089
 H         -3.1865556466       -1.7469725693       -0.1013915048
 H         -3.8311763371       -2.2322323994       -1.6578566886
 H         -4.7950941010       -1.2354449636       -0.5741753218
 H         -3.4847369659        1.1945320339       -3.9506001014
 H         -4.8528268349        1.5157921733       -2.8869762804
 H         -4.6700156178       -0.0560488987       -3.6492364866
 H         -3.3004092602       -4.7750687205       -4.1327055751
 H         -4.1431079220       -4.6528788438       -5.6644167272
 H         -4.6965528775       -3.7272779283       -4.2848070939
 H         -0.4928232196       -3.8732723779       -5.4943593169
 H         -0.4662260720       -2.3997784437       -6.4385165693
 H         -1.2521575217       -3.8380701685       -7.0802439623
 H         -4.5767060668       -1.1646957344       -6.0702893291
 H         -3.6926888053       -1.7378330598       -7.4702285049
 H         -3.0128543802       -0.4690720075       -6.4572199122
          44
        -57.31893732
 P         -0.0201652445       -0.4502991715       -0.3993409772
 O         -1.2466536956       -0.4207955613        0.5862065631
 O          1.1513786483       -0.6895678921        0.6219595450
 O          0.1452524485        1.0416710193       -0.8673829398
 O         -0.0990430367       -1.3925712224       -1.5055216743
 Si        -2.7547147019       -0.9811565638        0.1791711404
 Si         2.7016448434       -1.0712714958        0.1771557658
 Si         0.0770651847        2.4313527302        0.0348939260
 C         -3.8001018586       -0.4346135259        1.6718002156
 C         -2.6679909199       -2.8738971184        0.0150639238
 C         -3.3018626989       -0.1673331954       -1.4510957864
 C          3.3262772908        0.2158615560       -1.0791198434
 C          2.7104059197       -2.8213779117       -0.5653031031
 C          3.6244815699       -0.9703665299        1.8378135350
 C          1.0936383643        3.6449854383       -1.0212043926
 C          0.8095104939        2.1768815399        1.7709475738
 C         -1.7437505647        2.9822170050        0.1501540603
 H         -3.8837769174        0.6444457144        1.7511846319
 H         -3.3854340213       -0.8009351926        2.6050194623
 H         -4.8029626662       -0.8335673075        1.5762556924
 H         -1.9340613319       -3.1295677633       -0.7440280803
 H         -3.6200466026       -3.3107295619       -0.2696296061
 H         -2.3537116842       -3.3395742399        0.9459562596
 H         -2.4871402301       -0.2544424683       -2.1648138604
 H         -3.5258053945        0.8894010653       -1.3310947214
 H         -4.1791624798       -0.6426339939       -1.8790535099
 H          3.4448940647        1.1968975826       -0.6255590626
 H          2.5969289007        0.3120294859       -1.8789053161
 H          4.2792413101       -0.0603933833       -1.5200304940
 H          1.9554557379       -2.8783910563       -1.3445686485
 H          2.4655138548       -3.5714631910        0.1824707443
 H          3.6703551219       -3.0863125606       -0.9971494502
 H          3.1868435407       -1.6323457440        2.5778189765
 H          3.6202453458        0.0323061939        2.2530389310
 H          4.6581998417       -1.2654748844        1.7006960308
 H          2.1413341083        3.3667220022       -1.0768931607
 H          1.0388805064        4.6422979865       -0.5994211610
 H          0.7163438173        3.6943660566       -2.0378380480
 H          1.8791637193        1.9893484451        1.7280472555
 H          0.3506542473        1.3100496319        2.2377192569
 H          0.6482402892        3.0357552365        2.4160493342
 H         -1.8323881921        3.9431048351        0.6473323915
 H         -2.3342173039        2.2598220487        0.7060838791
 H         -2.1867440455        3.0820505692       -0.8371753326
