44

P         -1.21245       -0.40962       -3.63786
O          0.31621       -0.56797       -3.16811
O         -2.08060        0.24971       -2.45780
O         -1.82230       -1.84352       -4.03528
O         -1.26711        0.53288       -4.86973
Si         1.82466       -0.79582       -3.61947
Si        -3.52067        0.37784       -1.79538
Si        -2.35255       -2.77910       -5.20848
C          2.94243        0.29185       -2.59496
C          2.01883       -0.33504       -5.41832
C          2.28320       -2.58805       -3.37701
C         -3.40735        1.46975       -0.28624
C         -4.12507       -1.31249       -1.28659
C         -4.70383        1.13469       -3.02400
C         -3.43493       -4.12059       -4.49308
C         -0.90512       -3.55747       -6.09167
C         -3.36090       -1.76602       -6.40922
H          2.66181        1.35451       -2.74580
H          3.99553        0.13897       -2.90810
H          2.83258        0.02883       -1.52292
H          1.74502        0.73072       -5.55819
H          1.35440       -0.97040       -6.03745
H          3.07260       -0.49057       -5.72774
H          2.17020       -2.85630       -2.30659
H          3.33591       -2.74550       -3.68921
H          1.61557       -3.22616       -3.99058
H         -2.70047        1.02090        0.44149
H         -4.40975        1.56141        0.17990
H         -3.04368        2.47468       -0.58355
H         -3.41410       -1.75639       -0.56006
H         -4.19294       -1.96251       -2.18158
H         -5.12658       -1.22185       -0.81852
H         -4.33685        2.13901       -3.31927
H         -5.70767        1.22789       -2.56129
H         -4.76764        0.48556       -3.92133
H         -2.84776       -4.72311       -3.77014
H         -3.79862       -4.77540       -5.31133
H         -4.30266       -3.66282       -3.97658
H         -0.31592       -4.16247       -5.37292
H         -0.26360       -2.76255       -6.52187
H         -1.27833       -4.21146       -6.90613
H         -4.21911       -1.30842       -5.87579
H         -3.73617       -2.42192       -7.22128
H         -2.72638       -0.96690       -6.84394
