  44
 
 P         -1.2124500000       -0.4096200000       -3.6378600000
 O          0.3162100000       -0.5679700000       -3.1681100000
 O         -2.0806000000        0.2497100000       -2.4578000000
 O         -1.8223000000       -1.8435200000       -4.0352800000
 O         -1.2671100000        0.5328800000       -4.8697300000
 Si         1.8246600000       -0.7958200000       -3.6194700000
 Si        -3.5206700000        0.3778400000       -1.7953800000
 Si        -2.3525500000       -2.7791000000       -5.2084800000
 C          2.9424300000        0.2918500000       -2.5949600000
 C          2.0188300000       -0.3350400000       -5.4183200000
 C          2.2832000000       -2.5880500000       -3.3770100000
 C         -3.4073500000        1.4697500000       -0.2862400000
 C         -4.1250700000       -1.3124900000       -1.2865900000
 C         -4.7038300000        1.1346900000       -3.0240000000
 C         -3.4349300000       -4.1205900000       -4.4930800000
 C         -0.9051200000       -3.5574700000       -6.0916700000
 C         -3.3609000000       -1.7660200000       -6.4092200000
 H          2.6618100000        1.3545100000       -2.7458000000
 H          3.9955300000        0.1389700000       -2.9081000000
 H          2.8325800000        0.0288300000       -1.5229200000
 H          1.7450200000        0.7307200000       -5.5581900000
 H          1.3544000000       -0.9704000000       -6.0374500000
 H          3.0726000000       -0.4905700000       -5.7277400000
 H          2.1702000000       -2.8563000000       -2.3065900000
 H          3.3359100000       -2.7455000000       -3.6892100000
 H          1.6155700000       -3.2261600000       -3.9905800000
 H         -2.7004700000        1.0209000000        0.4414900000
 H         -4.4097500000        1.5614100000        0.1799000000
 H         -3.0436800000        2.4746800000       -0.5835500000
 H         -3.4141000000       -1.7563900000       -0.5600600000
 H         -4.1929400000       -1.9625100000       -2.1815800000
 H         -5.1265800000       -1.2218500000       -0.8185200000
 H         -4.3368500000        2.1390100000       -3.3192700000
 H         -5.7076700000        1.2278900000       -2.5612900000
 H         -4.7676400000        0.4855600000       -3.9213300000
 H         -2.8477600000       -4.7231100000       -3.7701400000
 H         -3.7986200000       -4.7754000000       -5.3113300000
 H         -4.3026600000       -3.6628200000       -3.9765800000
 H         -0.3159200000       -4.1624700000       -5.3729200000
 H         -0.2636000000       -2.7625500000       -6.5218700000
 H         -1.2783300000       -4.2114600000       -6.9061300000
 H         -4.2191100000       -1.3084200000       -5.8757900000
 H         -3.7361700000       -2.4219200000       -7.2212800000
 H         -2.7263800000       -0.9669000000       -6.8439400000
