29

P 0.093700000000000005507 -0.028699999999999999817 -0.48239999999999999547
N 0.15310000000000001386 1.5323999999999999844 0.15499999999999999889
N -1.3691999999999999726 -0.75329999999999996962 -0.10140000000000000402
N 1.2643999999999999684 -0.88629999999999997673 0.36099999999999998757
O 0.3402000000000000024 -0.008300000000000000086 -1.9213000000000000078
C -0.43109999999999998321 2.5905000000000000249 -0.63380000000000003002
C 0.32790000000000002478 1.8557999999999998941 1.5469999999999999307
C -2.0823000000000000398 -1.4960999999999999854 -1.1114999999999999325
C -2.0792999999999999261 -0.58069999999999999396 1.1404000000000000803
C 1.0701000000000000512 -1.7519000000000000128 1.4921999999999999709
C 2.625199999999999978 -0.46650000000000002576 0.12920000000000000928
H -1.4307000000000000828 2.8671999999999999709 -0.27700000000000002398
H -0.50139999999999995683 2.2456000000000000405 -1.6627000000000000668
H 0.20769999999999999574 3.4775000000000000355 -0.5971999999999999531
H 1.0313000000000001055 2.6903000000000001357 1.6412999999999999812
H 0.73780000000000001137 0.99950000000000005507 2.0767000000000002125
H -0.61409999999999997922 2.1560999999999999055 2.0247999999999999332
H     -3.0625 -1.0489999999999999325 -1.3075000000000001066
H -2.2309000000000001052 -2.5354000000000000981 -0.79930000000000001048
H -1.4937000000000000277 -1.4781999999999999584 -2.0249000000000001442
H -1.4517999999999999794 -0.063399999999999998024 1.8600000000000000977
H -2.3652999999999999581 -1.553399999999999892 1.5580000000000000515
H -2.9975000000000000533 0.00080000000000000003834 0.99070000000000002505
H 0.035299999999999998046 -2.0788999999999999702 1.5277000000000000579
H 1.3281000000000000583 -1.2675000000000000711 2.4447999999999998622
H 1.7070000000000000728 -2.6358000000000001428 1.3846000000000000529
H 2.6385000000000000675 0.14969999999999999973 -0.76780000000000003801
H 3.2660999999999997812 -1.3387000000000000011 -0.029399999999999999051
H 3.0289000000000001478 0.11350000000000000366 0.96840000000000003855
