45

P         -2.77729        2.07534        0.59625
O         -1.08877        1.62296        0.32184
O         -3.18231        1.87887        2.30964
N         -3.72269        0.84667       -0.36401
O         -3.11622        3.48332        0.03895
C         -0.12050        2.64639        0.12167
C         -3.86403        2.94007        2.98232
C          1.24128        1.92879        0.14933
C         -0.10325        3.69988        1.24099
C         -0.26541        3.31663       -1.25813
C         -4.09780        2.42697        4.41493
C         -5.24626        3.26791        2.38070
C         -3.02034        4.22341        3.08963
H          1.28814        1.15365       -0.64620
H          1.39432        1.42367        1.12778
H          2.07860        2.64293       -0.01041
H          0.75265        4.39683        1.10860
H         -0.01381        3.21433        2.23615
H         -1.00835        4.32035        1.20493
H         -0.26253        2.55142       -2.06388
H          0.57681        4.01926       -1.43897
H         -1.19081        3.91399       -1.33289
H         -4.71094        1.49971        4.39889
H         -4.62587        3.18317        5.03635
H         -3.12894        2.18732        4.90469
H         -5.16029        3.68049        1.36109
H         -5.75829        4.04231        2.99230
H         -5.90323        2.37611        2.36787
H         -2.91064        4.72078        2.11204
H         -2.02242        4.00208        3.52330
H         -3.52501        4.96555        3.74587
C         -3.32374        0.63590       -1.76990
C         -5.12714        0.61720        0.01399
H         -2.26053        0.31458       -1.78877
C         -3.45703        1.87015       -2.66971
H         -3.92038       -0.19498       -2.20505
H         -5.21734        0.69085        1.11301
H         -5.40843       -0.42699       -0.24175
C         -6.12413        1.55714       -0.65876
H         -2.81628        2.69389       -2.31942
H         -4.49158        2.24460       -2.74109
H         -3.12526        1.60436       -3.69534
H         -5.85991        2.61746       -0.48708
H         -7.13746        1.36683       -0.24690
H         -6.17911        1.35358       -1.74496
