  45
 
 P         -2.7772900000        2.0753400000        0.5962500000
 O         -1.0887700000        1.6229600000        0.3218400000
 O         -3.1823100000        1.8788700000        2.3096400000
 N         -3.7226900000        0.8466700000       -0.3640100000
 O         -3.1162200000        3.4833200000        0.0389500000
 C         -0.1205000000        2.6463900000        0.1216700000
 C         -3.8640300000        2.9400700000        2.9823200000
 C          1.2412800000        1.9287900000        0.1493300000
 C         -0.1032500000        3.6998800000        1.2409900000
 C         -0.2654100000        3.3166300000       -1.2581300000
 C         -4.0978000000        2.4269700000        4.4149300000
 C         -5.2462600000        3.2679100000        2.3807000000
 C         -3.0203400000        4.2234100000        3.0896300000
 H          1.2881400000        1.1536500000       -0.6462000000
 H          1.3943200000        1.4236700000        1.1277800000
 H          2.0786000000        2.6429300000       -0.0104100000
 H          0.7526500000        4.3968300000        1.1086000000
 H         -0.0138100000        3.2143300000        2.2361500000
 H         -1.0083500000        4.3203500000        1.2049300000
 H         -0.2625300000        2.5514200000       -2.0638800000
 H          0.5768100000        4.0192600000       -1.4389700000
 H         -1.1908100000        3.9139900000       -1.3328900000
 H         -4.7109400000        1.4997100000        4.3988900000
 H         -4.6258700000        3.1831700000        5.0363500000
 H         -3.1289400000        2.1873200000        4.9046900000
 H         -5.1602900000        3.6804900000        1.3610900000
 H         -5.7582900000        4.0423100000        2.9923000000
 H         -5.9032300000        2.3761100000        2.3678700000
 H         -2.9106400000        4.7207800000        2.1120400000
 H         -2.0224200000        4.0020800000        3.5233000000
 H         -3.5250100000        4.9655500000        3.7458700000
 C         -3.3237400000        0.6359000000       -1.7699000000
 C         -5.1271400000        0.6172000000        0.0139900000
 H         -2.2605300000        0.3145800000       -1.7887700000
 C         -3.4570300000        1.8701500000       -2.6697100000
 H         -3.9203800000       -0.1949800000       -2.2050500000
 H         -5.2173400000        0.6908500000        1.1130100000
 H         -5.4084300000       -0.4269900000       -0.2417500000
 C         -6.1241300000        1.5571400000       -0.6587600000
 H         -2.8162800000        2.6938900000       -2.3194200000
 H         -4.4915800000        2.2446000000       -2.7410900000
 H         -3.1252600000        1.6043600000       -3.6953400000
 H         -5.8599100000        2.6174600000       -0.4870800000
 H         -7.1374600000        1.3668300000       -0.2469000000
 H         -6.1791100000        1.3535800000       -1.7449600000
