  36
 
 P         -1.3747246235       -0.8973978001       -3.2741561427
 N          0.2569119315       -0.4757122142       -3.3841229684
 N         -2.2643343513       -0.0227702831       -2.1126173311
 N         -1.5167558664       -2.6086172221       -3.1840585449
 O         -1.9548748272       -0.4924548138       -4.5654639148
 C         -2.1195055231       -3.1681379748       -1.9966568290
 C         -1.2272577282       -2.7901714918       -0.8060254822
 C         -2.0724681877        0.0469240810       -0.6883471409
 C         -0.6810177199       -0.4666265027       -0.3555562477
 C          1.3441257318       -0.7982327836       -2.5017277075
 C          0.8959063765       -1.8903957353       -1.5460781321
 N         -0.4762333574       -1.6148545741       -1.2004886794
 C         -1.9277170542       -3.2573270731       -4.4088048471
 C         -3.5321121255        0.5411038433       -2.5161940891
 C          0.6212331790        0.5404296177       -4.3444958535
 H         -2.1715369397       -4.2551782327       -2.1075225587
 H         -3.1469867066       -2.8013078184       -1.8440779051
 H         -0.5454482162       -3.6128030434       -0.5664923754
 H         -1.8291830905       -2.5905875010        0.0828421604
 H         -2.8433138249       -0.5417163020       -0.1631533044
 H         -2.1814828549        1.0893084597       -0.3589696295
 H         -0.5830752112       -0.6978171822        0.7156995276
 H          0.0500205439        0.2989417354       -0.6138687300
 H          1.6801130414        0.0990541049       -1.9539493068
 H          2.2017217613       -1.1476110830       -3.0929007764
 H          1.5548240610       -1.9461660508       -0.6662618130
 H          0.9177023919       -2.8441102264       -2.0750632123
 H         -1.4955264505       -2.7158624123       -5.2445823807
 H         -3.0160404098       -3.2773806507       -4.5359062284
 H         -1.5523838389       -4.2841663891       -4.4105279915
 H         -3.6345909325        0.4359111399       -3.5914601393
 H         -3.5729677724        1.6037367235       -2.2565241561
 H         -4.3691671103        0.0331557970       -2.0209871533
 H         -0.2345239899        0.7416229082       -4.9808041833
 H          1.4533260145        0.1916298760       -4.9642204327
 H          0.9269636798        1.4681870739       -3.8463355008
          36
        -48.38414939
 P          0.7901125477        0.0009329576        0.0001481833
 N          0.3860565179        1.5539574443       -0.5709643359
 N          0.3887642685       -1.2697344383       -1.0602239895
 N          0.3873884049       -0.2808653486        1.6308251508
 O          2.2617814417        0.0025190163        0.0005130016
 C         -0.8964878395       -0.2303599196        2.2733276839
 C         -1.8908648476        0.4261117446        1.3278251696
 C         -0.8936692629       -1.8555655868       -1.3355991907
 C         -1.8886412198       -1.3662482209       -0.2942545031
 C         -0.8979207508        2.0832064595       -0.9380839710
 C         -1.8902947570        0.9346350532       -1.0357006717
 N         -1.5254267351       -0.0014606861       -0.0005724908
 C          1.3931558318       -0.8640671281        2.4874553964
 C          1.3963403535       -1.7225423810       -1.9905492128
 C          1.3908787747        2.5883570411       -0.4946519436
 H         -0.8192502553        0.3500842750        3.2033716865
 H         -1.2294517041       -1.2433473661        2.5579784728
 H         -1.7806070371        1.5083723166        1.3901782825
 H         -2.9270850743        0.1633106835        1.5834479647
 H         -0.8133421962       -2.9509835268       -1.2960775090
 H         -1.2281114413       -1.5983332314       -2.3553967799
 H         -1.7772646944       -1.9610197816        0.6119304868
 H         -2.9247865178       -1.4580432901       -0.6493581929
 H         -0.8198196311        2.5984336351       -1.9057487162
 H         -1.2333044615        2.8358928721       -0.2038801745
 H         -1.7771077898        0.4475806627       -2.0038371502
 H         -2.9272886443        1.2856863255       -0.9381636392
 H          1.5114101343       -0.2633338894        3.3950868590
 H          2.3363462543       -0.8874558116        1.9523453298
 H          1.1190944677       -1.8844839140        2.7811506234
 H          1.1232605211       -1.4704289350       -3.0221631305
 H          1.5154251694       -2.8086283066       -1.9203377526
 H          2.3386596553       -1.2456824870       -1.7436864454
 H          2.3348297342        2.1373721565       -0.2086345018
 H          1.1171407270        3.3519342039        0.2432617769
 H          1.5071242997        3.0751908765       -1.4684061435
