43

P         -1.30384       -0.60274       -3.41689
N          0.51381       -0.55965       -3.28796
N         -1.95102        0.41549       -2.04769
C         -1.99993       -2.31192       -3.51589
O         -1.65484        0.21154       -4.69362
C          1.11943       -0.97709       -4.57098
C          0.94677       -1.38901       -2.13840
C         -3.41361        0.59997       -2.21453
C         -1.21171        1.70061       -2.04248
H          0.67719       -0.37912       -5.39602
H          0.92875       -2.05071       -4.77334
C          2.62425       -0.72458       -4.62576
H          0.10530       -1.58090       -1.43572
C          2.00986       -0.66811       -1.31006
H          1.32028       -2.38381       -2.46761
H         -3.85363       -0.20625       -2.84059
H         -3.65238        1.55887       -2.72649
C         -4.13969        0.51264       -0.86991
H         -0.12710        1.49553       -1.95077
C         -1.56374        2.60681       -0.86464
H         -1.37285        2.25778       -2.99218
H          2.84169        0.34535       -4.42397
H          3.00290       -0.98018       -5.63757
H          3.16271       -1.36725       -3.90237
H          1.60569        0.28540       -0.91375
H          2.91948       -0.44388       -1.89676
H          2.30189       -1.30678       -0.45001
H         -3.95364       -0.47100       -0.39327
H         -5.23249        0.62191       -1.03445
H         -3.82242        1.29835       -0.16120
H         -1.40455        2.07040        0.09453
H         -2.60786        2.96939       -0.93723
H         -0.90779        3.50262       -0.88380
C         -2.80347       -2.81204       -2.48147
C         -1.72366       -3.12503       -4.62495
C         -2.24541       -4.42060       -4.69684
C         -3.04470       -4.91228       -3.66150
C         -3.32356       -4.10767       -2.55407
H         -3.02070       -2.20842       -1.61444
H         -1.11517       -2.75850       -5.43911
H         -2.03098       -5.04321       -5.55579
H         -3.44744       -5.91530       -3.71717
H         -3.94071       -4.48838       -1.75049
