  43
 
 P         -1.3038400000       -0.6027400000       -3.4168900000
 N          0.5138100000       -0.5596500000       -3.2879600000
 N         -1.9510200000        0.4154900000       -2.0476900000
 C         -1.9999300000       -2.3119200000       -3.5158900000
 O         -1.6548400000        0.2115400000       -4.6936200000
 C          1.1194300000       -0.9770900000       -4.5709800000
 C          0.9467700000       -1.3890100000       -2.1384000000
 C         -3.4136100000        0.5999700000       -2.2145300000
 C         -1.2117100000        1.7006100000       -2.0424800000
 H          0.6771900000       -0.3791200000       -5.3960200000
 H          0.9287500000       -2.0507100000       -4.7733400000
 C          2.6242500000       -0.7245800000       -4.6257600000
 H          0.1053000000       -1.5809000000       -1.4357200000
 C          2.0098600000       -0.6681100000       -1.3100600000
 H          1.3202800000       -2.3838100000       -2.4676100000
 H         -3.8536300000       -0.2062500000       -2.8405900000
 H         -3.6523800000        1.5588700000       -2.7264900000
 C         -4.1396900000        0.5126400000       -0.8699100000
 H         -0.1271000000        1.4955300000       -1.9507700000
 C         -1.5637400000        2.6068100000       -0.8646400000
 H         -1.3728500000        2.2577800000       -2.9921800000
 H          2.8416900000        0.3453500000       -4.4239700000
 H          3.0029000000       -0.9801800000       -5.6375700000
 H          3.1627100000       -1.3672500000       -3.9023700000
 H          1.6056900000        0.2854000000       -0.9137500000
 H          2.9194800000       -0.4438800000       -1.8967600000
 H          2.3018900000       -1.3067800000       -0.4500100000
 H         -3.9536400000       -0.4710000000       -0.3932700000
 H         -5.2324900000        0.6219100000       -1.0344500000
 H         -3.8224200000        1.2983500000       -0.1612000000
 H         -1.4045500000        2.0704000000        0.0945300000
 H         -2.6078600000        2.9693900000       -0.9372300000
 H         -0.9077900000        3.5026200000       -0.8838000000
 C         -2.8034700000       -2.8120400000       -2.4814700000
 C         -1.7236600000       -3.1250300000       -4.6249500000
 C         -2.2454100000       -4.4206000000       -4.6968400000
 C         -3.0447000000       -4.9122800000       -3.6615000000
 C         -3.3235600000       -4.1076700000       -2.5540700000
 H         -3.0207000000       -2.2084200000       -1.6144400000
 H         -1.1151700000       -2.7585000000       -5.4391100000
 H         -2.0309800000       -5.0432100000       -5.5557900000
 H         -3.4474400000       -5.9153000000       -3.7171700000
 H         -3.9407100000       -4.4883800000       -1.7504900000
